Version 4.1
SHEET 1 4928 1016
WIRE -368 -528 -400 -528
WIRE -256 -528 -288 -528
WIRE -224 -528 -256 -528
WIRE -128 -528 -144 -528
WIRE -256 -512 -256 -528
WIRE -672 -352 -704 -352
WIRE -560 -352 -592 -352
WIRE -528 -352 -560 -352
WIRE -400 -352 -400 -528
WIRE -400 -352 -448 -352
WIRE -336 -352 -400 -352
WIRE -128 -336 -128 -528
WIRE -128 -336 -272 -336
WIRE -96 -336 -128 -336
WIRE -336 -320 -384 -320
WIRE -704 -288 -704 -352
WIRE -384 -288 -384 -320
WIRE -336 -128 -400 -128
WIRE -224 -128 -256 -128
WIRE -672 -16 -704 -16
WIRE -560 -16 -592 -16
WIRE -528 -16 -560 -16
WIRE -400 -16 -400 -128
WIRE -400 -16 -448 -16
WIRE -336 -16 -400 -16
WIRE -224 0 -224 -128
WIRE -224 0 -272 0
WIRE -176 0 -224 0
WIRE -336 16 -384 16
WIRE -704 48 -704 -16
WIRE -384 48 -384 16
WIRE -672 464 -672 368
WIRE -592 464 -672 464
WIRE -464 464 -512 464
WIRE -400 464 -464 464
WIRE -240 464 -240 368
WIRE -240 464 -320 464
WIRE -464 576 -464 464
WIRE -400 576 -464 576
FLAG -400 576 0
FLAG -672 368 Vcc
FLAG -240 368 Vss
FLAG -304 -32 Vcc
FLAG -304 32 Vss
FLAG -176 0 Vo_1
FLAG -560 -16 Vi_1
FLAG -704 -16 V1
FLAG -384 48 0
FLAG -304 -368 Vcc
FLAG -304 -304 Vss
FLAG -96 -336 Vo_2
FLAG -560 -352 Vi_2
FLAG -704 -352 V2
FLAG -384 -288 0
FLAG -256 -432 0
FLAG -704 -208 0
FLAG -704 128 0
SYMBOL voltage -608 464 R270
WINDOW 123 0 0 Left 0
WINDOW 39 0 0 Left 0
SYMATTR InstName Vcc
SYMATTR Value 10
SYMBOL voltage -416 464 R270
WINDOW 123 0 0 Left 0
WINDOW 39 0 0 Left 0
SYMATTR InstName Vss
SYMATTR Value 10
SYMBOL OpAmps\\opamp2 -304 -64 R0
WINDOW 3 20 118 Left 2
SYMATTR Value lmx24_lm2902
SYMATTR InstName U3
SYMBOL res -576 -32 R90
WINDOW 0 0 56 VBottom 2
WINDOW 3 32 56 VTop 2
SYMATTR InstName Ri_1
SYMATTR Value 50
SYMATTR SpiceLine tol=1
SYMBOL res -240 -144 R90
WINDOW 0 0 56 VBottom 2
WINDOW 3 32 56 VTop 2
SYMATTR InstName Rf_1
SYMATTR Value 30k
SYMBOL res -432 -32 R90
WINDOW 0 0 56 VBottom 2
WINDOW 3 32 56 VTop 2
SYMATTR InstName R1_1
SYMATTR Value 1k
SYMBOL OpAmps\\opamp2 -304 -400 R0
WINDOW 3 19 120 Left 2
SYMATTR Value lmx24_lm2902
SYMATTR InstName U1
SYMBOL res -576 -368 R90
WINDOW 0 0 56 VBottom 2
WINDOW 3 32 56 VTop 2
SYMATTR InstName Ri_2
SYMATTR Value 100k
SYMATTR SpiceLine tol=1
SYMBOL res -432 -368 R90
WINDOW 0 0 56 VBottom 2
WINDOW 3 32 56 VTop 2
SYMATTR InstName R1_2
SYMATTR Value 1Meg
SYMBOL res -272 -544 R90
WINDOW 0 0 56 VBottom 2
WINDOW 3 32 56 VTop 2
SYMATTR InstName R1
SYMATTR Value 100k
SYMBOL res -128 -544 R90
WINDOW 0 0 56 VBottom 2
WINDOW 3 32 56 VTop 2
SYMATTR InstName R2
SYMATTR Value 200k
SYMBOL res -240 -416 R180
WINDOW 0 36 62 Left 2
WINDOW 3 36 40 Left 2
SYMATTR InstName R3
SYMATTR Value 690
SYMBOL voltage -704 -304 R0
WINDOW 123 24 44 Left 2
WINDOW 39 0 0 Left 0
SYMATTR InstName V1
SYMATTR Value PWL(0 -10 1 10)
SYMATTR Value2 AC 1
SYMBOL voltage -704 32 R0
WINDOW 123 24 124 Left 2
WINDOW 39 0 0 Left 0
SYMATTR InstName V2
SYMATTR Value PWL(0 -10 1 10)
SYMATTR Value2 AC 1
TEXT -1976 -24 Left 2 !.inc C:\\Users\\Nano\\OneDrive\\Documentos\\LTspice\\LMx24\\lmx24_lm2902.lib
TEXT -232 176 Left 2 !.tran 1
